*SPEF "ieee 1481-1999"
*DESIGN "gcd"
*DATE "23:03:40 Wednesday May 28, 2025"
*VENDOR "The OpenROAD Project"
*PROGRAM "OpenROAD"
*VERSION "v2.0-19576-gec1bf1a13"
*DESIGN_FLOW "NAME_SCOPE LOCAL" "PIN_CAP NONE"
*DIVIDER /
*DELIMITER :
*BUS_DELIMITER []
*T_UNIT 1 NS
*C_UNIT 1 PF
*R_UNIT 1 OHM
*L_UNIT 1 HENRY

*NAME_MAP
*1 _000_
*2 _001_
*3 _002_
*4 _003_
*5 _004_
*6 _005_
*7 _006_
*8 _007_
*9 _008_
*10 _009_
*11 _010_
*12 _011_
*13 _012_
*14 _013_
*15 _014_
*16 _015_
*17 _016_
*18 _017_
*19 _018_
*20 _019_
*21 _020_
*22 _021_
*23 _022_
*24 _023_
*25 _024_
*26 _025_
*27 _026_
*28 _027_
*29 _028_
*30 _029_
*31 _030_
*32 _031_
*33 _032_
*34 _033_
*35 _034_
*36 _035_
*37 _036_
*38 _037_
*39 _038_
*40 _039_
*41 _040_
*42 _041_
*43 _042_
*44 _043_
*45 _044_
*46 _045_
*47 _046_
*48 _047_
*49 _048_
*50 _049_
*51 _050_
*52 _051_
*53 _052_
*54 _053_
*55 _054_
*56 _055_
*57 _056_
*58 _057_
*59 _058_
*60 _059_
*61 _060_
*62 _061_
*63 _062_
*64 _063_
*65 _064_
*66 _065_
*67 _066_
*68 _067_
*69 _068_
*70 _069_
*71 _070_
*72 _071_
*73 _072_
*74 _073_
*75 _074_
*76 _075_
*77 _076_
*78 _077_
*79 _078_
*80 _079_
*81 _080_
*82 _081_
*83 _082_
*84 _083_
*85 _084_
*86 _085_
*87 _086_
*88 _087_
*89 _088_
*90 _089_
*91 _090_
*92 _091_
*93 _092_
*94 _093_
*95 _094_
*96 _095_
*97 _096_
*98 _097_
*99 _098_
*100 _099_
*101 _100_
*102 _101_
*103 _102_
*104 _103_
*105 _104_
*106 _105_
*107 _106_
*108 _107_
*109 _108_
*110 _109_
*111 _110_
*112 _111_
*113 _112_
*114 _113_
*115 _114_
*116 _115_
*117 _116_
*118 _117_
*119 _118_
*120 _119_
*121 _120_
*122 _121_
*123 _122_
*124 _123_
*125 _124_
*126 _125_
*127 _126_
*128 _127_
*129 _128_
*130 _129_
*131 _130_
*132 _131_
*133 _132_
*134 _133_
*135 _134_
*136 _135_
*137 _136_
*138 _137_
*139 _138_
*140 _139_
*141 _140_
*142 _141_
*143 _142_
*144 _143_
*145 _144_
*146 _145_
*147 _146_
*148 _147_
*149 _148_
*150 _149_
*151 _150_
*152 _151_
*153 _152_
*154 _153_
*155 _154_
*156 _155_
*157 _156_
*158 _157_
*159 _158_
*160 _159_
*161 _160_
*162 _161_
*163 _162_
*164 _163_
*165 _164_
*166 _165_
*167 _166_
*168 _167_
*169 _168_
*170 _169_
*171 _170_
*172 _171_
*173 _172_
*174 _173_
*175 _174_
*176 _175_
*177 _176_
*178 _177_
*179 _178_
*180 _179_
*181 _180_
*182 _181_
*183 _182_
*184 _183_
*185 _184_
*186 _185_
*187 _186_
*188 _187_
*189 _188_
*190 _189_
*191 _190_
*192 _191_
*193 _192_
*194 _193_
*195 _194_
*196 _195_
*197 _196_
*198 _197_
*199 _198_
*200 _199_
*201 _200_
*202 _201_
*203 _202_
*204 _203_
*205 _204_
*206 _205_
*207 _206_
*208 _207_
*209 _208_
*210 _209_
*211 _210_
*212 _211_
*213 _212_
*214 _213_
*215 _214_
*216 _215_
*217 _216_
*218 _217_
*219 _218_
*220 _219_
*221 _220_
*222 _221_
*223 _222_
*224 _223_
*225 _224_
*226 _225_
*227 _226_
*228 _227_
*229 _228_
*230 _229_
*231 _230_
*232 _231_
*233 _232_
*234 _233_
*235 _234_
*236 _235_
*237 _236_
*238 _237_
*239 _238_
*240 _239_
*241 _240_
*242 _241_
*243 _242_
*244 _243_
*245 _244_
*246 _245_
*247 _246_
*248 _247_
*249 _248_
*250 _249_
*251 _250_
*252 _251_
*253 _252_
*254 _253_
*255 _254_
*256 _255_
*257 _256_
*258 _257_
*259 _258_
*260 _259_
*261 _260_
*262 _261_
*263 _262_
*264 _263_
*265 _264_
*266 _265_
*267 _266_
*268 _267_
*269 _268_
*270 _269_
*271 _270_
*272 _271_
*273 _272_
*274 _273_
*275 _274_
*276 _275_
*277 _276_
*278 _277_
*279 _278_
*280 _279_
*281 _280_
*282 _281_
*283 _282_
*284 _283_
*285 _284_
*286 _285_
*287 _286_
*288 _287_
*289 _288_
*290 _289_
*291 _290_
*292 _291_
*293 _292_
*294 _293_
*295 _294_
*296 _295_
*297 _296_
*298 _297_
*299 _298_
*300 _299_
*301 _300_
*302 _301_
*303 _302_
*304 _303_
*305 _304_
*306 _305_
*307 _306_
*308 _307_
*309 _308_
*310 _309_
*311 _310_
*312 _311_
*313 _312_
*314 _313_
*315 _314_
*316 _315_
*317 _316_
*318 _317_
*319 _318_
*320 _319_
*321 clknet_0_clk
*322 clk
*323 ctrl\.state\.out\[1\]
*324 ctrl\.state\.out\[2\]
*325 dpath\.a_lt_b\$in0\[0\]
*326 dpath\.a_lt_b\$in0\[10\]
*327 dpath\.a_lt_b\$in0\[11\]
*328 dpath\.a_lt_b\$in0\[12\]
*329 dpath\.a_lt_b\$in0\[13\]
*330 dpath\.a_lt_b\$in0\[14\]
*331 dpath\.a_lt_b\$in0\[15\]
*332 dpath\.a_lt_b\$in0\[1\]
*333 dpath\.a_lt_b\$in0\[2\]
*334 dpath\.a_lt_b\$in0\[3\]
*335 dpath\.a_lt_b\$in0\[4\]
*336 dpath\.a_lt_b\$in0\[5\]
*337 dpath\.a_lt_b\$in0\[6\]
*338 dpath\.a_lt_b\$in0\[7\]
*339 dpath\.a_lt_b\$in0\[8\]
*340 dpath\.a_lt_b\$in0\[9\]
*341 dpath\.a_lt_b\$in1\[0\]
*342 dpath\.a_lt_b\$in1\[10\]
*343 dpath\.a_lt_b\$in1\[11\]
*344 dpath\.a_lt_b\$in1\[12\]
*345 dpath\.a_lt_b\$in1\[13\]
*346 dpath\.a_lt_b\$in1\[14\]
*347 dpath\.a_lt_b\$in1\[15\]
*348 dpath\.a_lt_b\$in1\[1\]
*349 dpath\.a_lt_b\$in1\[2\]
*350 dpath\.a_lt_b\$in1\[3\]
*351 dpath\.a_lt_b\$in1\[4\]
*352 dpath\.a_lt_b\$in1\[5\]
*353 dpath\.a_lt_b\$in1\[6\]
*354 dpath\.a_lt_b\$in1\[7\]
*355 dpath\.a_lt_b\$in1\[8\]
*356 dpath\.a_lt_b\$in1\[9\]
*357 req_msg[0]
*358 req_msg[10]
*359 req_msg[11]
*360 req_msg[12]
*361 req_msg[13]
*362 req_msg[14]
*363 req_msg[15]
*364 req_msg[16]
*365 req_msg[17]
*366 req_msg[18]
*367 req_msg[19]
*368 req_msg[1]
*369 req_msg[20]
*370 req_msg[21]
*371 req_msg[22]
*372 req_msg[23]
*373 req_msg[24]
*374 req_msg[25]
*375 req_msg[26]
*376 req_msg[27]
*377 req_msg[28]
*378 req_msg[29]
*379 req_msg[2]
*380 req_msg[30]
*381 req_msg[31]
*382 req_msg[3]
*383 req_msg[4]
*384 req_msg[5]
*385 req_msg[6]
*386 req_msg[7]
*387 req_msg[8]
*388 req_msg[9]
*389 net50
*390 req_val
*391 reset
*392 net51
*393 net52
*394 net53
*395 net54
*396 net55
*397 net56
*398 net57
*399 net58
*400 net59
*401 net60
*402 net61
*403 net62
*404 net63
*405 net64
*406 net65
*407 net66
*408 resp_rdy
*409 net67
*412 net29
*413 net30
*414 net31
*415 net32
*416 net33
*417 net34
*418 net35
*419 net36
*420 net37
*421 net38
*422 net39
*423 net40
*424 net41
*425 net42
*426 net1
*427 net2
*428 net3
*429 net4
*430 net5
*431 net6
*432 net7
*433 net8
*434 net9
*435 net10
*436 net11
*437 net12
*438 net13
*439 net14
*440 net15
*441 net16
*442 net17
*443 net18
*444 net19
*445 net20
*446 net21
*447 net22
*448 net23
*449 net24
*450 net25
*451 net26
*452 net27
*453 net28
*454 net43
*455 net44
*456 net45
*457 net46
*458 net47
*459 net48
*460 net49
*461 req_rdy
*462 resp_msg[0]
*463 resp_msg[10]
*464 resp_msg[11]
*465 resp_msg[12]
*466 resp_msg[13]
*467 resp_msg[14]
*468 resp_msg[15]
*469 resp_msg[1]
*470 resp_msg[2]
*471 resp_msg[3]
*472 resp_msg[4]
*473 resp_msg[5]
*474 resp_msg[6]
*475 resp_msg[7]
*476 resp_msg[8]
*477 resp_msg[9]
*478 resp_val
*479 net68
*480 net69
*481 net70
*482 net71
*483 net72
*484 net73
*485 net74
*486 net75
*487 net76
*488 net77
*489 net78
*490 net79
*491 net80
*492 net81
*493 net82
*494 net83
*495 net84
*496 net85
*497 net86
*498 net87
*499 net88
*500 net89
*501 net90
*502 net91
*503 net92
*504 net93
*505 net94
*506 net95
*507 net96
*508 net97
*509 net98
*510 net99
*511 net100
*512 net101
*513 net102
*514 clknet_3_0__leaf_clk
*515 clknet_3_1__leaf_clk
*516 clknet_3_2__leaf_clk
*517 clknet_3_3__leaf_clk
*518 clknet_3_4__leaf_clk
*519 clknet_3_5__leaf_clk
*520 clknet_3_6__leaf_clk
*521 clknet_3_7__leaf_clk
*522 _321_
*523 _322_
*524 _323_
*525 _324_
*526 _325_
*527 _326_
*528 _327_
*529 _328_
*530 _329_
*531 _330_
*532 _331_
*533 _332_
*534 _333_
*535 _334_
*536 _335_
*537 _336_
*538 _337_
*539 _338_
*540 _339_
*541 _340_
*542 _341_
*543 _342_
*544 _343_
*545 _344_
*546 _345_
*547 _346_
*548 _347_
*549 _348_
*550 _349_
*551 _350_
*552 _351_
*553 _352_
*554 _353_
*555 _354_
*556 _355_
*557 _356_
*558 _357_
*559 _358_
*560 _359_
*561 _360_
*562 _361_
*563 _362_
*564 _363_
*565 _364_
*566 _365_
*567 _366_
*568 _367_
*569 _368_
*570 _369_
*571 _370_
*572 _371_
*573 _372_
*574 _373_
*575 _374_
*576 _375_
*577 _376_
*578 _377_
*579 _378_
*580 _379_
*581 _380_
*582 _381_
*583 _382_
*584 _383_
*585 _384_
*586 _385_
*587 _386_
*588 _387_
*589 _388_
*590 _389_
*591 _390_
*592 _391_
*593 _392_
*594 _393_
*595 _394_
*596 _395_
*597 _396_
*598 _397_
*599 _398_
*600 _399_
*601 _400_
*602 _401_
*603 _402_
*604 _403_
*605 _404_
*606 _405_
*607 _406_
*608 _407_
*609 _408_
*610 _409_
*611 _410_
*612 _411_
*613 _412_
*614 _413_
*615 _414_
*616 _415_
*617 _416_
*618 _417_
*619 _418_
*620 _419_
*621 _420_
*622 _421_
*623 _422_
*624 _423_
*625 _424_
*626 _425_
*627 _426_
*628 _427_
*629 _428_
*630 _429_
*631 _430_
*632 _431_
*633 _432_
*634 _433_
*635 _434_
*636 _435_
*637 _436_
*638 _437_
*639 _438_
*640 _439_
*641 _440_
*642 _441_
*643 _442_
*644 _443_
*645 _444_
*646 _445_
*647 _446_
*648 _447_
*649 _448_
*650 _449_
*651 _450_
*652 _451_
*653 _452_
*654 _453_
*655 _454_
*656 _455_
*657 _456_
*658 _457_
*659 _458_
*660 _459_
*661 _460_
*662 _461_
*663 _462_
*664 _463_
*665 _464_
*666 _465_
*667 _466_
*668 _467_
*669 _468_
*670 _469_
*671 _470_
*672 _471_
*673 _472_
*674 _473_
*675 _474_
*676 _475_
*677 _476_
*678 _477_
*679 _478_
*680 _479_
*681 _480_
*682 _481_
*683 _482_
*684 _483_
*685 _484_
*686 _485_
*687 _486_
*688 _487_
*689 _488_
*690 _489_
*691 _490_
*692 _491_
*693 _492_
*694 _493_
*695 _494_
*696 _495_
*697 _496_
*698 _497_
*699 _498_
*700 _499_
*701 _500_
*702 _501_
*703 _502_
*704 _503_
*705 _504_
*706 _505_
*707 _506_
*708 _507_
*709 _508_
*710 _509_
*711 _510_
*712 _511_
*713 _512_
*714 _513_
*715 _514_
*716 _515_
*717 _516_
*718 _517_
*719 _518_
*720 _519_
*721 _520_
*722 _521_
*723 _522_
*724 _523_
*725 _524_
*726 _525_
*727 _526_
*728 _527_
*729 _528_
*730 _529_
*731 _530_
*732 _531_
*733 _532_
*734 _533_
*735 _534_
*736 _535_
*737 _536_
*738 _537_
*739 _538_
*740 _539_
*741 _540_
*742 _541_
*743 _542_
*744 _543_
*745 _544_
*746 _545_
*747 _546_
*748 _547_
*749 _548_
*750 _549_
*751 _550_
*752 _551_
*753 _552_
*754 _553_
*755 _554_
*756 _555_
*757 _556_
*758 _557_
*759 _558_
*760 _559_
*761 _560_
*762 _561_
*763 _562_
*764 _563_
*765 _564_
*766 _565_
*767 _566_
*768 _567_
*769 _568_
*770 _569_
*771 _570_
*772 _571_
*773 _572_
*774 _573_
*775 _574_
*776 _575_
*777 _576_
*778 _577_
*779 _578_
*780 _579_
*781 _580_
*782 _581_
*783 _582_
*784 _583_
*785 _584_
*786 _585_
*787 _586_
*788 _587_
*789 _588_
*790 _589_
*791 _590_
*792 _591_
*793 _592_
*794 _593_
*795 _594_
*796 _595_
*797 _596_
*798 _597_
*799 _598_
*800 _599_
*801 _600_
*802 _601_
*803 _602_
*804 _603_
*805 _604_
*806 _605_
*807 _606_
*808 _607_
*809 _608_
*810 _609_
*811 _610_
*812 _611_
*813 _612_
*814 _613_
*815 _614_
*816 _615_
*817 _616_
*818 _617_
*819 _618_
*820 _619_
*821 _620_
*822 _621_
*823 _622_
*824 clkbuf_0_clk
*825 ctrl\.state\.out\[0\]\$_DFF_P_
*826 ctrl\.state\.out\[1\]\$_DFF_P_
*827 ctrl\.state\.out\[2\]\$_DFF_P_
*828 dpath\.a_reg\.out\[0\]\$_DFFE_PP_
*829 dpath\.a_reg\.out\[10\]\$_DFFE_PP_
*830 dpath\.a_reg\.out\[11\]\$_DFFE_PP_
*831 dpath\.a_reg\.out\[12\]\$_DFFE_PP_
*832 dpath\.a_reg\.out\[13\]\$_DFFE_PP_
*833 dpath\.a_reg\.out\[14\]\$_DFFE_PP_
*834 dpath\.a_reg\.out\[15\]\$_DFFE_PP_
*835 dpath\.a_reg\.out\[1\]\$_DFFE_PP_
*836 dpath\.a_reg\.out\[2\]\$_DFFE_PP_
*837 dpath\.a_reg\.out\[3\]\$_DFFE_PP_
*838 dpath\.a_reg\.out\[4\]\$_DFFE_PP_
*839 dpath\.a_reg\.out\[5\]\$_DFFE_PP_
*840 dpath\.a_reg\.out\[6\]\$_DFFE_PP_
*841 dpath\.a_reg\.out\[7\]\$_DFFE_PP_
*842 dpath\.a_reg\.out\[8\]\$_DFFE_PP_
*843 dpath\.a_reg\.out\[9\]\$_DFFE_PP_
*844 dpath\.b_reg\.out\[0\]\$_DFFE_PP_
*845 dpath\.b_reg\.out\[10\]\$_DFFE_PP_
*846 dpath\.b_reg\.out\[11\]\$_DFFE_PP_
*847 dpath\.b_reg\.out\[12\]\$_DFFE_PP_
*848 dpath\.b_reg\.out\[13\]\$_DFFE_PP_
*849 dpath\.b_reg\.out\[14\]\$_DFFE_PP_
*850 dpath\.b_reg\.out\[15\]\$_DFFE_PP_
*851 dpath\.b_reg\.out\[1\]\$_DFFE_PP_
*852 dpath\.b_reg\.out\[2\]\$_DFFE_PP_
*853 dpath\.b_reg\.out\[3\]\$_DFFE_PP_
*854 dpath\.b_reg\.out\[4\]\$_DFFE_PP_
*855 dpath\.b_reg\.out\[5\]\$_DFFE_PP_
*856 dpath\.b_reg\.out\[6\]\$_DFFE_PP_
*857 dpath\.b_reg\.out\[7\]\$_DFFE_PP_
*858 dpath\.b_reg\.out\[8\]\$_DFFE_PP_
*859 dpath\.b_reg\.out\[9\]\$_DFFE_PP_
*860 fanout29
*861 fanout30
*862 fanout31
*863 fanout32
*864 fanout33
*865 fanout34
*866 fanout35
*867 fanout36
*868 fanout37
*869 fanout38
*870 fanout39
*871 fanout40
*872 fanout41
*873 fanout42
*874 input1
*875 input2
*876 input3
*877 input4
*878 input5
*879 input6
*880 input7
*881 input8
*882 input9
*883 input10
*884 input11
*885 input12
*886 input13
*887 input14
*888 input15
*889 input16
*890 input17
*891 input18
*892 input19
*893 input20
*894 input21
*895 input22
*896 input23
*897 input24
*898 input25
*899 input26
*900 input27
*901 input28
*902 input29
*903 input30
*904 input31
*905 input32
*906 input33
*907 input34
*908 input35
*909 output36
*910 output37
*911 output38
*912 output39
*913 output40
*914 output41
*915 output42
*916 output43
*917 output44
*918 output45
*919 output46
*920 output47
*921 output48
*922 output49
*923 output50
*924 output51
*925 output52
*926 output53
*927 ctrl\.state\.out\[0\]\$_DFF_P__54
*928 ctrl\.state\.out\[1\]\$_DFF_P__55
*929 ctrl\.state\.out\[2\]\$_DFF_P__56
*930 dpath\.a_reg\.out\[0\]\$_DFFE_PP__57
*931 dpath\.a_reg\.out\[10\]\$_DFFE_PP__58
*932 dpath\.a_reg\.out\[11\]\$_DFFE_PP__59
*933 dpath\.a_reg\.out\[12\]\$_DFFE_PP__60
*934 dpath\.a_reg\.out\[13\]\$_DFFE_PP__61
*935 dpath\.a_reg\.out\[14\]\$_DFFE_PP__62
*936 dpath\.a_reg\.out\[15\]\$_DFFE_PP__63
*937 dpath\.a_reg\.out\[1\]\$_DFFE_PP__64
*938 dpath\.a_reg\.out\[2\]\$_DFFE_PP__65
*939 dpath\.a_reg\.out\[3\]\$_DFFE_PP__66
*940 dpath\.a_reg\.out\[4\]\$_DFFE_PP__67
*941 dpath\.a_reg\.out\[5\]\$_DFFE_PP__68
*942 dpath\.a_reg\.out\[6\]\$_DFFE_PP__69
*943 dpath\.a_reg\.out\[7\]\$_DFFE_PP__70
*944 dpath\.a_reg\.out\[8\]\$_DFFE_PP__71
*945 dpath\.a_reg\.out\[9\]\$_DFFE_PP__72
*946 dpath\.b_reg\.out\[0\]\$_DFFE_PP__73
*947 dpath\.b_reg\.out\[10\]\$_DFFE_PP__74
*948 dpath\.b_reg\.out\[11\]\$_DFFE_PP__75
*949 dpath\.b_reg\.out\[12\]\$_DFFE_PP__76
*950 dpath\.b_reg\.out\[13\]\$_DFFE_PP__77
*951 dpath\.b_reg\.out\[14\]\$_DFFE_PP__78
*952 dpath\.b_reg\.out\[15\]\$_DFFE_PP__79
*953 dpath\.b_reg\.out\[1\]\$_DFFE_PP__80
*954 dpath\.b_reg\.out\[2\]\$_DFFE_PP__81
*955 dpath\.b_reg\.out\[3\]\$_DFFE_PP__82
*956 dpath\.b_reg\.out\[4\]\$_DFFE_PP__83
*957 dpath\.b_reg\.out\[5\]\$_DFFE_PP__84
*958 dpath\.b_reg\.out\[6\]\$_DFFE_PP__85
*959 dpath\.b_reg\.out\[7\]\$_DFFE_PP__86
*960 dpath\.b_reg\.out\[8\]\$_DFFE_PP__87
*961 dpath\.b_reg\.out\[9\]\$_DFFE_PP__88
*962 clkbuf_3_0__f_clk
*963 clkbuf_3_1__f_clk
*964 clkbuf_3_2__f_clk
*965 clkbuf_3_3__f_clk
*966 clkbuf_3_4__f_clk
*967 clkbuf_3_5__f_clk
*968 clkbuf_3_6__f_clk
*969 clkbuf_3_7__f_clk
*970 clkload0
*971 clkload1
*972 clkload2
*973 clkload3
*974 clkload4
*975 FILLER_0_0
*976 FILLER_0_7
*977 FILLER_0_14
*978 FILLER_0_21
*979 FILLER_0_28
*980 FILLER_0_35
*981 FILLER_0_42
*982 FILLER_0_49
*983 FILLER_0_56
*984 FILLER_0_63
*985 FILLER_0_70
*986 FILLER_0_77
*987 FILLER_0_84
*988 FILLER_0_91
*989 FILLER_0_102
*990 FILLER_0_106
*991 FILLER_0_111
*992 FILLER_0_123
*993 FILLER_0_130
*994 FILLER_0_138
*995 FILLER_0_146
*996 FILLER_0_154
*997 FILLER_0_158
*998 FILLER_0_168
*999 FILLER_0_175
*1000 FILLER_0_182
*1001 FILLER_0_187
*1002 FILLER_0_193
*1003 FILLER_0_195
*1004 FILLER_0_200
*1005 FILLER_0_207
*1006 FILLER_0_214
*1007 FILLER_0_221
*1008 FILLER_0_228
*1009 FILLER_0_235
*1010 FILLER_0_242
*1011 FILLER_0_249
*1012 FILLER_0_256
*1013 FILLER_0_263
*1014 FILLER_0_270
*1015 FILLER_0_277
*1016 FILLER_0_284
*1017 FILLER_0_291
*1018 FILLER_0_298
*1019 FILLER_0_305
*1020 FILLER_0_312
*1021 FILLER_0_319
*1022 FILLER_0_326
*1023 FILLER_1_0
*1024 FILLER_1_7
*1025 FILLER_1_14
*1026 FILLER_1_21
*1027 FILLER_1_28
*1028 FILLER_1_35
*1029 FILLER_1_42
*1030 FILLER_1_49
*1031 FILLER_1_56
*1032 FILLER_1_63
*1033 FILLER_1_70
*1034 FILLER_1_77
*1035 FILLER_1_84
*1036 FILLER_1_91
*1037 FILLER_1_98
*1038 FILLER_1_105
*1039 FILLER_1_112
*1040 FILLER_1_119
*1041 FILLER_1_126
*1042 FILLER_1_133
*1043 FILLER_1_137
*1044 FILLER_1_142
*1045 FILLER_1_147
*1046 FILLER_1_154
*1047 FILLER_1_161
*1048 FILLER_1_166
*1049 FILLER_1_173
*1050 FILLER_1_180
*1051 FILLER_1_187
*1052 FILLER_1_194
*1053 FILLER_1_201
*1054 FILLER_1_208
*1055 FILLER_1_215
*1056 FILLER_1_222
*1057 FILLER_1_229
*1058 FILLER_1_236
*1059 FILLER_1_243
*1060 FILLER_1_250
*1061 FILLER_1_257
*1062 FILLER_1_264
*1063 FILLER_1_271
*1064 FILLER_1_278
*1065 FILLER_1_285
*1066 FILLER_1_292
*1067 FILLER_1_299
*1068 FILLER_1_306
*1069 FILLER_1_313
*1070 FILLER_1_320
*1071 FILLER_2_0
*1072 FILLER_2_7
*1073 FILLER_2_14
*1074 FILLER_2_21
*1075 FILLER_2_28
*1076 FILLER_2_35
*1077 FILLER_2_42
*1078 FILLER_2_49
*1079 FILLER_2_56
*1080 FILLER_2_63
*1081 FILLER_2_70
*1082 FILLER_2_77
*1083 FILLER_2_84
*1084 FILLER_2_91
*1085 FILLER_2_98
*1086 FILLER_2_105
*1087 FILLER_2_112
*1088 FILLER_2_119
*1089 FILLER_2_126
*1090 FILLER_2_133
*1091 FILLER_2_140
*1092 FILLER_2_147
*1093 FILLER_2_154
*1094 FILLER_2_161
*1095 FILLER_2_168
*1096 FILLER_2_175
*1097 FILLER_2_182
*1098 FILLER_2_189
*1099 FILLER_2_196
*1100 FILLER_2_203
*1101 FILLER_2_210
*1102 FILLER_2_217
*1103 FILLER_2_224
*1104 FILLER_2_231
*1105 FILLER_2_238
*1106 FILLER_2_245
*1107 FILLER_2_252
*1108 FILLER_2_259
*1109 FILLER_2_266
*1110 FILLER_2_273
*1111 FILLER_2_280
*1112 FILLER_2_287
*1113 FILLER_2_294
*1114 FILLER_2_301
*1115 FILLER_2_308
*1116 FILLER_2_315
*1117 FILLER_2_322
*1118 FILLER_2_326
*1119 FILLER_3_0
*1120 FILLER_3_7
*1121 FILLER_3_14
*1122 FILLER_3_21
*1123 FILLER_3_28
*1124 FILLER_3_35
*1125 FILLER_3_42
*1126 FILLER_3_49
*1127 FILLER_3_56
*1128 FILLER_3_63
*1129 FILLER_3_70
*1130 FILLER_3_77
*1131 FILLER_3_84
*1132 FILLER_3_91
*1133 FILLER_3_98
*1134 FILLER_3_105
*1135 FILLER_3_112
*1136 FILLER_3_119
*1137 FILLER_3_126
*1138 FILLER_3_133
*1139 FILLER_3_140
*1140 FILLER_3_147
*1141 FILLER_3_154
*1142 FILLER_3_161
*1143 FILLER_3_168
*1144 FILLER_3_175
*1145 FILLER_3_182
*1146 FILLER_3_189
*1147 FILLER_3_196
*1148 FILLER_3_203
*1149 FILLER_3_210
*1150 FILLER_3_217
*1151 FILLER_3_224
*1152 FILLER_3_231
*1153 FILLER_3_238
*1154 FILLER_3_245
*1155 FILLER_3_252
*1156 FILLER_3_259
*1157 FILLER_3_266
*1158 FILLER_3_273
*1159 FILLER_3_280
*1160 FILLER_3_287
*1161 FILLER_3_294
*1162 FILLER_3_301
*1163 FILLER_3_308
*1164 FILLER_3_315
*1165 FILLER_3_322
*1166 FILLER_3_326
*1167 FILLER_4_0
*1168 FILLER_4_7
*1169 FILLER_4_14
*1170 FILLER_4_21
*1171 FILLER_4_28
*1172 FILLER_4_35
*1173 FILLER_4_42
*1174 FILLER_4_49
*1175 FILLER_4_56
*1176 FILLER_4_63
*1177 FILLER_4_70
*1178 FILLER_4_77
*1179 FILLER_4_84
*1180 FILLER_4_91
*1181 FILLER_4_98
*1182 FILLER_4_105
*1183 FILLER_4_112
*1184 FILLER_4_119
*1185 FILLER_4_126
*1186 FILLER_4_133
*1187 FILLER_4_140
*1188 FILLER_4_147
*1189 FILLER_4_154
*1190 FILLER_4_161
*1191 FILLER_4_168
*1192 FILLER_4_175
*1193 FILLER_4_182
*1194 FILLER_4_189
*1195 FILLER_4_196
*1196 FILLER_4_203
*1197 FILLER_4_210
*1198 FILLER_4_217
*1199 FILLER_4_224
*1200 FILLER_4_231
*1201 FILLER_4_238
*1202 FILLER_4_245
*1203 FILLER_4_252
*1204 FILLER_4_259
*1205 FILLER_4_266
*1206 FILLER_4_273
*1207 FILLER_4_280
*1208 FILLER_4_287
*1209 FILLER_4_294
*1210 FILLER_4_301
*1211 FILLER_4_308
*1212 FILLER_4_315
*1213 FILLER_4_322
*1214 FILLER_4_326
*1215 FILLER_5_0
*1216 FILLER_5_7
*1217 FILLER_5_14
*1218 FILLER_5_21
*1219 FILLER_5_28
*1220 FILLER_5_35
*1221 FILLER_5_42
*1222 FILLER_5_49
*1223 FILLER_5_56
*1224 FILLER_5_63
*1225 FILLER_5_70
*1226 FILLER_5_77
*1227 FILLER_5_84
*1228 FILLER_5_91
*1229 FILLER_5_98
*1230 FILLER_5_105
*1231 FILLER_5_112
*1232 FILLER_5_119
*1233 FILLER_5_126
*1234 FILLER_5_133
*1235 FILLER_5_140
*1236 FILLER_5_147
*1237 FILLER_5_154
*1238 FILLER_5_161
*1239 FILLER_5_168
*1240 FILLER_5_175
*1241 FILLER_5_182
*1242 FILLER_5_189
*1243 FILLER_5_196
*1244 FILLER_5_203
*1245 FILLER_5_210
*1246 FILLER_5_217
*1247 FILLER_5_224
*1248 FILLER_5_231
*1249 FILLER_5_238
*1250 FILLER_5_245
*1251 FILLER_5_252
*1252 FILLER_5_259
*1253 FILLER_5_266
*1254 FILLER_5_273
*1255 FILLER_5_280
*1256 FILLER_5_287
*1257 FILLER_5_294
*1258 FILLER_5_301
*1259 FILLER_5_308
*1260 FILLER_5_315
*1261 FILLER_5_322
*1262 FILLER_5_326
*1263 FILLER_6_0
*1264 FILLER_6_7
*1265 FILLER_6_14
*1266 FILLER_6_21
*1267 FILLER_6_28
*1268 FILLER_6_35
*1269 FILLER_6_42
*1270 FILLER_6_49
*1271 FILLER_6_56
*1272 FILLER_6_63
*1273 FILLER_6_70
*1274 FILLER_6_77
*1275 FILLER_6_84
*1276 FILLER_6_91
*1277 FILLER_6_98
*1278 FILLER_6_105
*1279 FILLER_6_112
*1280 FILLER_6_119
*1281 FILLER_6_126
*1282 FILLER_6_133
*1283 FILLER_6_140
*1284 FILLER_6_147
*1285 FILLER_6_154
*1286 FILLER_6_161
*1287 FILLER_6_168
*1288 FILLER_6_175
*1289 FILLER_6_182
*1290 FILLER_6_189
*1291 FILLER_6_196
*1292 FILLER_6_203
*1293 FILLER_6_210
*1294 FILLER_6_217
*1295 FILLER_6_224
*1296 FILLER_6_231
*1297 FILLER_6_238
*1298 FILLER_6_245
*1299 FILLER_6_252
*1300 FILLER_6_259
*1301 FILLER_6_266
*1302 FILLER_6_273
*1303 FILLER_6_280
*1304 FILLER_6_287
*1305 FILLER_6_294
*1306 FILLER_6_301
*1307 FILLER_6_308
*1308 FILLER_6_315
*1309 FILLER_6_322
*1310 FILLER_6_326
*1311 FILLER_7_0
*1312 FILLER_7_7
*1313 FILLER_7_14
*1314 FILLER_7_21
*1315 FILLER_7_28
*1316 FILLER_7_35
*1317 FILLER_7_42
*1318 FILLER_7_49
*1319 FILLER_7_56
*1320 FILLER_7_63
*1321 FILLER_7_70
*1322 FILLER_7_77
*1323 FILLER_7_84
*1324 FILLER_7_91
*1325 FILLER_7_98
*1326 FILLER_7_105
*1327 FILLER_7_112
*1328 FILLER_7_119
*1329 FILLER_7_126
*1330 FILLER_7_133
*1331 FILLER_7_140
*1332 FILLER_7_147
*1333 FILLER_7_154
*1334 FILLER_7_161
*1335 FILLER_7_168
*1336 FILLER_7_175
*1337 FILLER_7_182
*1338 FILLER_7_189
*1339 FILLER_7_196
*1340 FILLER_7_203
*1341 FILLER_7_210
*1342 FILLER_7_217
*1343 FILLER_7_224
*1344 FILLER_7_231
*1345 FILLER_7_238
*1346 FILLER_7_245
*1347 FILLER_7_252
*1348 FILLER_7_259
*1349 FILLER_7_266
*1350 FILLER_7_273
*1351 FILLER_7_280
*1352 FILLER_7_287
*1353 FILLER_7_294
*1354 FILLER_7_301
*1355 FILLER_7_308
*1356 FILLER_7_315
*1357 FILLER_7_322
*1358 FILLER_7_326
*1359 FILLER_8_0
*1360 FILLER_8_7
*1361 FILLER_8_14
*1362 FILLER_8_21
*1363 FILLER_8_28
*1364 FILLER_8_35
*1365 FILLER_8_42
*1366 FILLER_8_49
*1367 FILLER_8_56
*1368 FILLER_8_63
*1369 FILLER_8_70
*1370 FILLER_8_77
*1371 FILLER_8_84
*1372 FILLER_8_91
*1373 FILLER_8_98
*1374 FILLER_8_105
*1375 FILLER_8_112
*1376 FILLER_8_119
*1377 FILLER_8_126
*1378 FILLER_8_133
*1379 FILLER_8_140
*1380 FILLER_8_147
*1381 FILLER_8_154
*1382 FILLER_8_161
*1383 FILLER_8_168
*1384 FILLER_8_175
*1385 FILLER_8_182
*1386 FILLER_8_189
*1387 FILLER_8_196
*1388 FILLER_8_203
*1389 FILLER_8_210
*1390 FILLER_8_217
*1391 FILLER_8_224
*1392 FILLER_8_231
*1393 FILLER_8_238
*1394 FILLER_8_245
*1395 FILLER_8_252
*1396 FILLER_8_259
*1397 FILLER_8_266
*1398 FILLER_8_273
*1399 FILLER_8_280
*1400 FILLER_8_287
*1401 FILLER_8_294
*1402 FILLER_8_301
*1403 FILLER_8_308
*1404 FILLER_8_315
*1405 FILLER_8_322
*1406 FILLER_8_326
*1407 FILLER_9_0
*1408 FILLER_9_7
*1409 FILLER_9_14
*1410 FILLER_9_21
*1411 FILLER_9_28
*1412 FILLER_9_35
*1413 FILLER_9_42
*1414 FILLER_9_49
*1415 FILLER_9_56
*1416 FILLER_9_63
*1417 FILLER_9_70
*1418 FILLER_9_77
*1419 FILLER_9_84
*1420 FILLER_9_91
*1421 FILLER_9_98
*1422 FILLER_9_105
*1423 FILLER_9_112
*1424 FILLER_9_119
*1425 FILLER_9_126
*1426 FILLER_9_133
*1427 FILLER_9_140
*1428 FILLER_9_142
*1429 FILLER_9_147
*1430 FILLER_9_154
*1431 FILLER_9_161
*1432 FILLER_9_168
*1433 FILLER_9_175
*1434 FILLER_9_182
*1435 FILLER_9_189
*1436 FILLER_9_196
*1437 FILLER_9_203
*1438 FILLER_9_210
*1439 FILLER_9_217
*1440 FILLER_9_224
*1441 FILLER_9_231
*1442 FILLER_9_238
*1443 FILLER_9_245
*1444 FILLER_9_252
*1445 FILLER_9_259
*1446 FILLER_9_266
*1447 FILLER_9_273
*1448 FILLER_9_280
*1449 FILLER_9_287
*1450 FILLER_9_294
*1451 FILLER_9_301
*1452 FILLER_9_308
*1453 FILLER_9_315
*1454 FILLER_9_322
*1455 FILLER_9_326
*1456 FILLER_10_0
*1457 FILLER_10_7
*1458 FILLER_10_14
*1459 FILLER_10_21
*1460 FILLER_10_28
*1461 FILLER_10_35
*1462 FILLER_10_42
*1463 FILLER_10_49
*1464 FILLER_10_56
*1465 FILLER_10_63
*1466 FILLER_10_70
*1467 FILLER_10_77
*1468 FILLER_10_84
*1469 FILLER_10_91
*1470 FILLER_10_95
*1471 FILLER_10_122
*1472 FILLER_10_130
*1473 FILLER_10_134
*1474 FILLER_10_162
*1475 FILLER_10_169
*1476 FILLER_10_176
*1477 FILLER_10_184
*1478 FILLER_10_191
*1479 FILLER_10_198
*1480 FILLER_10_202
*1481 FILLER_10_209
*1482 FILLER_10_216
*1483 FILLER_10_223
*1484 FILLER_10_230
*1485 FILLER_10_237
*1486 FILLER_10_244
*1487 FILLER_10_251
*1488 FILLER_10_258
*1489 FILLER_10_265
*1490 FILLER_10_272
*1491 FILLER_10_279
*1492 FILLER_10_286
*1493 FILLER_10_293
*1494 FILLER_10_300
*1495 FILLER_10_307
*1496 FILLER_10_314
*1497 FILLER_10_321
*1498 FILLER_10_325
*1499 FILLER_11_0
*1500 FILLER_11_7
*1501 FILLER_11_14
*1502 FILLER_11_21
*1503 FILLER_11_28
*1504 FILLER_11_35
*1505 FILLER_11_42
*1506 FILLER_11_49
*1507 FILLER_11_56
*1508 FILLER_11_63
*1509 FILLER_11_70
*1510 FILLER_11_77
*1511 FILLER_11_84
*1512 FILLER_11_88
*1513 FILLER_11_100
*1514 FILLER_11_105
*1515 FILLER_11_142
*1516 FILLER_11_199
*1517 FILLER_11_217
*1518 FILLER_11_222
*1519 FILLER_11_229
*1520 FILLER_11_236
*1521 FILLER_11_243
*1522 FILLER_11_250
*1523 FILLER_11_257
*1524 FILLER_11_264
*1525 FILLER_11_271
*1526 FILLER_11_278
*1527 FILLER_11_285
*1528 FILLER_11_292
*1529 FILLER_11_299
*1530 FILLER_11_306
*1531 FILLER_11_313
*1532 FILLER_11_320
*1533 FILLER_12_0
*1534 FILLER_12_7
*1535 FILLER_12_14
*1536 FILLER_12_21
*1537 FILLER_12_28
*1538 FILLER_12_35
*1539 FILLER_12_42
*1540 FILLER_12_49
*1541 FILLER_12_56
*1542 FILLER_12_63
*1543 FILLER_12_70
*1544 FILLER_12_77
*1545 FILLER_12_84
*1546 FILLER_12_91
*1547 FILLER_12_121
*1548 FILLER_12_145
*1549 FILLER_12_154
*1550 FILLER_12_165
*1551 FILLER_12_176
*1552 FILLER_12_190
*1553 FILLER_12_201
*1554 FILLER_12_228
*1555 FILLER_12_235
*1556 FILLER_12_242
*1557 FILLER_12_249
*1558 FILLER_12_256
*1559 FILLER_12_263
*1560 FILLER_12_270
*1561 FILLER_12_277
*1562 FILLER_12_284
*1563 FILLER_12_291
*1564 FILLER_12_298
*1565 FILLER_12_305
*1566 FILLER_12_312
*1567 FILLER_12_319
*1568 FILLER_12_326
*1569 FILLER_13_0
*1570 FILLER_13_7
*1571 FILLER_13_14
*1572 FILLER_13_21
*1573 FILLER_13_28
*1574 FILLER_13_35
*1575 FILLER_13_42
*1576 FILLER_13_49
*1577 FILLER_13_56
*1578 FILLER_13_63
*1579 FILLER_13_70
*1580 FILLER_13_77
*1581 FILLER_13_84
*1582 FILLER_13_105
*1583 FILLER_13_124
*1584 FILLER_13_128
*1585 FILLER_13_159
*1586 FILLER_13_175
*1587 FILLER_13_202
*1588 FILLER_13_209
*1589 FILLER_13_237
*1590 FILLER_13_244
*1591 FILLER_13_251
*1592 FILLER_13_258
*1593 FILLER_13_265
*1594 FILLER_13_272
*1595 FILLER_13_279
*1596 FILLER_13_286
*1597 FILLER_13_293
*1598 FILLER_13_300
*1599 FILLER_13_307
*1600 FILLER_13_314
*1601 FILLER_13_321
*1602 FILLER_13_325
*1603 FILLER_14_0
*1604 FILLER_14_7
*1605 FILLER_14_14
*1606 FILLER_14_21
*1607 FILLER_14_28
*1608 FILLER_14_35
*1609 FILLER_14_42
*1610 FILLER_14_49
*1611 FILLER_14_56
*1612 FILLER_14_63
*1613 FILLER_14_70
*1614 FILLER_14_77
*1615 FILLER_14_81
*1616 FILLER_14_132
*1617 FILLER_14_150
*1618 FILLER_14_156
*1619 FILLER_14_166
*1620 FILLER_14_230
*1621 FILLER_14_237
*1622 FILLER_14_244
*1623 FILLER_14_251
*1624 FILLER_14_258
*1625 FILLER_14_265
*1626 FILLER_14_272
*1627 FILLER_14_279
*1628 FILLER_14_286
*1629 FILLER_14_291
*1630 FILLER_14_298
*1631 FILLER_14_305
*1632 FILLER_14_312
*1633 FILLER_14_319
*1634 FILLER_14_326
*1635 FILLER_15_0
*1636 FILLER_15_7
*1637 FILLER_15_14
*1638 FILLER_15_16
*1639 FILLER_15_25
*1640 FILLER_15_32
*1641 FILLER_15_39
*1642 FILLER_15_46
*1643 FILLER_15_53
*1644 FILLER_15_60
*1645 FILLER_15_67
*1646 FILLER_15_74
*1647 FILLER_15_81
*1648 FILLER_15_95
*1649 FILLER_15_136
*1650 FILLER_15_179
*1651 FILLER_15_195
*1652 FILLER_15_203
*1653 FILLER_15_214
*1654 FILLER_15_219
*1655 FILLER_15_255
*1656 FILLER_15_262
*1657 FILLER_15_269
*1658 FILLER_15_276
*1659 FILLER_15_283
*1660 FILLER_15_290
*1661 FILLER_15_297
*1662 FILLER_15_304
*1663 FILLER_15_311
*1664 FILLER_15_318
*1665 FILLER_15_325
*1666 FILLER_16_0
*1667 FILLER_16_7
*1668 FILLER_16_14
*1669 FILLER_16_21
*1670 FILLER_16_28
*1671 FILLER_16_35
*1672 FILLER_16_42
*1673 FILLER_16_49
*1674 FILLER_16_56
*1675 FILLER_16_63
*1676 FILLER_16_70
*1677 FILLER_16_77
*1678 FILLER_16_135
*1679 FILLER_16_163
*1680 FILLER_16_170
*1681 FILLER_16_176
*1682 FILLER_16_194
*1683 FILLER_16_200
*1684 FILLER_16_206
*1685 FILLER_16_210
*1686 FILLER_16_231
*1687 FILLER_16_259
*1688 FILLER_16_266
*1689 FILLER_16_273
*1690 FILLER_16_280
*1691 FILLER_16_287
*1692 FILLER_16_294
*1693 FILLER_16_298
*1694 FILLER_16_303
*1695 FILLER_16_311
*1696 FILLER_16_318
*1697 FILLER_16_325
*1698 FILLER_17_0
*1699 FILLER_17_7
*1700 FILLER_17_11
*1701 FILLER_17_17
*1702 FILLER_17_24
*1703 FILLER_17_31
*1704 FILLER_17_38
*1705 FILLER_17_45
*1706 FILLER_17_52
*1707 FILLER_17_59
*1708 FILLER_17_66
*1709 FILLER_17_73
*1710 FILLER_17_80
*1711 FILLER_17_115
*1712 FILLER_17_157
*1713 FILLER_17_255
*1714 FILLER_17_260
*1715 FILLER_17_267
*1716 FILLER_17_274
*1717 FILLER_17_278
*1718 FILLER_17_284
*1719 FILLER_17_291
*1720 FILLER_17_298
*1721 FILLER_17_305
*1722 FILLER_17_312
*1723 FILLER_17_319
*1724 FILLER_17_326
*1725 FILLER_18_0
*1726 FILLER_18_7
*1727 FILLER_18_14
*1728 FILLER_18_16
*1729 FILLER_18_21
*1730 FILLER_18_25
*1731 FILLER_18_31
*1732 FILLER_18_38
*1733 FILLER_18_45
*1734 FILLER_18_52
*1735 FILLER_18_59
*1736 FILLER_18_66
*1737 FILLER_18_73
*1738 FILLER_18_80
*1739 FILLER_18_82
*1740 FILLER_18_87
*1741 FILLER_18_114
*1742 FILLER_18_125
*1743 FILLER_18_131
*1744 FILLER_18_136
*1745 FILLER_18_193
*1746 FILLER_18_200
*1747 FILLER_18_211
*1748 FILLER_18_216
*1749 FILLER_18_250
*1750 FILLER_18_265
*1751 FILLER_18_272
*1752 FILLER_18_279
*1753 FILLER_18_286
*1754 FILLER_18_290
*1755 FILLER_18_295
*1756 FILLER_18_302
*1757 FILLER_18_309
*1758 FILLER_18_316
*1759 FILLER_18_323
*1760 FILLER_19_0
*1761 FILLER_19_11
*1762 FILLER_19_18
*1763 FILLER_19_25
*1764 FILLER_19_32
*1765 FILLER_19_39
*1766 FILLER_19_46
*1767 FILLER_19_53
*1768 FILLER_19_60
*1769 FILLER_19_67
*1770 FILLER_19_74
*1771 FILLER_19_81
*1772 FILLER_19_92
*1773 FILLER_19_104
*1774 FILLER_19_123
*1775 FILLER_19_133
*1776 FILLER_19_160
*1777 FILLER_19_171
*1778 FILLER_19_176
*1779 FILLER_19_263
*1780 FILLER_19_270
*1781 FILLER_19_277
*1782 FILLER_19_284
*1783 FILLER_19_291
*1784 FILLER_19_298
*1785 FILLER_19_305
*1786 FILLER_19_312
*1787 FILLER_19_314
*1788 FILLER_19_319
*1789 FILLER_19_326
*1790 FILLER_20_4
*1791 FILLER_20_11
*1792 FILLER_20_18
*1793 FILLER_20_25
*1794 FILLER_20_32
*1795 FILLER_20_39
*1796 FILLER_20_46
*1797 FILLER_20_53
*1798 FILLER_20_60
*1799 FILLER_20_67
*1800 FILLER_20_74
*1801 FILLER_20_81
*1802 FILLER_20_85