*SPEF "ieee 1481-1999"
*DESIGN "gcd"
*DATE "15:01:37 Monday May 19, 2025"
*VENDOR "The OpenROAD Project"
*PROGRAM "OpenROAD"
*VERSION "v2.0-19576-gec1bf1a13"
*DESIGN_FLOW "NAME_SCOPE LOCAL" "PIN_CAP NONE"
*DIVIDER /
*DELIMITER :
*BUS_DELIMITER []
*T_UNIT 1 NS
*C_UNIT 1 PF
*R_UNIT 1 OHM
*L_UNIT 1 HENRY

*NAME_MAP
*1 _000_
*2 _001_
*3 _002_
*4 _003_
*5 _004_
*6 _005_
*7 _006_
*8 _007_
*9 _008_
*10 _009_
*11 _010_
*12 _011_
*13 _012_
*14 _013_
*15 _014_
*16 _015_
*17 _016_
*18 _017_
*19 _018_
*20 _019_
*21 _020_
*22 _021_
*23 _022_
*24 _023_
*25 _024_
*26 _025_
*27 _026_
*28 _027_
*29 _028_
*30 _029_
*31 _030_
*32 _031_
*33 _032_
*34 _033_
*35 _034_
*36 _035_
*37 _036_
*38 _037_
*39 _038_
*40 _039_
*41 _040_
*42 _041_
*43 _042_
*44 _043_
*45 _044_
*46 _045_
*47 _046_
*48 _047_
*49 _048_
*50 _049_
*51 _050_
*52 _051_
*53 _052_
*54 _053_
*55 _054_
*56 _055_
*57 _056_
*58 _057_
*59 _058_
*60 _059_
*61 _060_
*62 _061_
*63 _062_
*64 _063_
*65 _064_
*66 _065_
*67 _066_
*68 _067_
*69 _068_
*70 _069_
*71 _070_
*72 _071_
*73 _072_
*74 _073_
*75 _074_
*76 _075_
*77 _076_
*78 _077_
*79 _078_
*80 _079_
*81 _080_
*82 _081_
*83 _082_
*84 _083_
*85 _084_
*86 _085_
*87 _086_
*88 _087_
*89 _088_
*90 _089_
*91 _090_
*92 _091_
*93 _092_
*94 _093_
*95 _094_
*96 _095_
*97 _096_
*98 _097_
*99 _098_
*100 _099_
*101 _100_
*102 _101_
*103 _102_
*104 _103_
*105 _104_
*106 _105_
*107 _106_
*108 _107_
*109 _108_
*110 _109_
*111 _110_
*112 _111_
*113 _112_
*114 _113_
*115 _114_
*116 _115_
*117 _116_
*118 _117_
*119 _118_
*120 _119_
*121 _120_
*122 _121_
*123 _122_
*124 _123_
*125 _124_
*126 _125_
*127 _126_
*128 _127_
*129 _128_
*130 _129_
*131 _130_
*132 _131_
*133 _132_
*134 _133_
*135 _134_
*136 _135_
*137 _136_
*138 _137_
*139 _138_
*140 _139_
*141 _140_
*142 _141_
*143 _142_
*144 _143_
*145 _144_
*146 _145_
*147 _146_
*148 _147_
*149 _148_
*150 _149_
*151 _150_
*152 _151_
*153 _152_
*154 _153_
*155 _154_
*156 _155_
*157 _156_
*158 _157_
*159 _158_
*160 _159_
*161 _160_
*162 _161_
*163 _162_
*164 _163_
*165 _164_
*166 _165_
*167 _166_
*168 _167_
*169 _168_
*170 _169_
*171 _170_
*172 _171_
*173 _172_
*174 _173_
*175 _174_
*176 _175_
*177 _176_
*178 _177_
*179 _178_
*180 _179_
*181 _180_
*182 _181_
*183 _182_
*184 _183_
*185 _184_
*186 _185_
*187 _186_
*188 _187_
*189 _188_
*190 _189_
*191 _190_
*192 _191_
*193 _192_
*194 _193_
*195 _194_
*196 _195_
*197 _196_
*198 _197_
*199 _198_
*200 _199_
*201 _200_
*202 _201_
*203 _202_
*204 _203_
*205 _204_
*206 _205_
*207 _206_
*208 _207_
*209 _208_
*210 _209_
*211 _210_
*212 _211_
*213 _212_
*214 _213_
*215 _214_
*216 _215_
*217 _216_
*218 _217_
*219 _218_
*220 _219_
*221 _220_
*222 _221_
*223 _222_
*224 _223_
*225 _224_
*226 _225_
*227 _226_
*228 _227_
*229 _228_
*230 _229_
*231 _230_
*232 _231_
*233 _232_
*234 _233_
*235 _234_
*236 _235_
*237 _236_
*238 _237_
*239 _238_
*240 _239_
*241 _240_
*242 _241_
*243 _242_
*244 _243_
*245 _244_
*246 _245_
*247 _246_
*248 _247_
*249 _248_
*250 _249_
*251 _250_
*252 _251_
*253 _252_
*254 _253_
*255 _254_
*256 _255_
*257 _256_
*258 _257_
*259 _258_
*260 _259_
*261 _260_
*262 _261_
*263 _262_
*264 _263_
*265 _264_
*266 _265_
*267 _266_
*268 _267_
*269 _268_
*270 _269_
*271 _270_
*272 _271_
*273 _272_
*274 _273_
*275 _274_
*276 _275_
*277 _276_
*278 _277_
*279 _278_
*280 _279_
*281 _280_
*282 _281_
*283 _282_
*284 _283_
*285 _284_
*286 _285_
*287 _286_
*288 _287_
*289 _288_
*290 _289_
*291 _290_
*292 _291_
*293 _292_
*294 _293_
*295 _294_
*296 _295_
*297 _296_
*298 clk
*299 dpath\.a_lt_b\$in0\[10\]
*300 dpath\.a_lt_b\$in0\[11\]
*301 dpath\.a_lt_b\$in0\[12\]
*302 dpath\.a_lt_b\$in0\[13\]
*303 dpath\.a_lt_b\$in0\[14\]
*304 dpath\.a_lt_b\$in0\[15\]
*305 dpath\.a_lt_b\$in0\[1\]
*306 dpath\.a_lt_b\$in0\[2\]
*307 dpath\.a_lt_b\$in0\[3\]
*308 dpath\.a_lt_b\$in0\[4\]
*309 dpath\.a_lt_b\$in0\[5\]
*310 dpath\.a_lt_b\$in0\[6\]
*311 dpath\.a_lt_b\$in0\[7\]
*312 dpath\.a_lt_b\$in0\[8\]
*313 dpath\.a_lt_b\$in0\[9\]
*314 dpath\.a_lt_b\$in1\[0\]
*315 dpath\.a_lt_b\$in1\[1\]
*316 req_msg[0]
*317 req_msg[10]
*318 req_msg[11]
*319 req_msg[12]
*320 req_msg[13]
*321 req_msg[14]
*322 req_msg[15]
*323 req_msg[16]
*324 req_msg[17]
*325 req_msg[18]
*326 req_msg[19]
*327 req_msg[1]
*328 req_msg[20]
*329 req_msg[21]
*330 req_msg[22]
*331 req_msg[23]
*332 req_msg[24]
*333 req_msg[25]
*334 req_msg[26]
*335 req_msg[27]
*336 req_msg[28]
*337 req_msg[29]
*338 req_msg[2]
*339 req_msg[30]
*340 req_msg[31]
*341 req_msg[3]
*342 req_msg[4]
*343 req_msg[5]
*344 req_msg[6]
*345 req_msg[7]
*346 req_msg[8]
*347 req_msg[9]
*348 net36
*349 req_val
*350 reset
*351 net37
*352 net38
*353 net39
*354 net40
*355 net41
*356 net42
*357 net43
*358 net44
*359 net45
*360 net46
*361 net47
*362 net48
*363 net49
*364 net50
*365 net51
*366 net52
*367 resp_rdy
*368 net53
*371 net1
*372 net2
*373 net3
*374 net4
*375 net5
*376 net6
*377 net7
*378 net8
*379 net9
*380 net10
*381 net11
*382 net12
*383 net13
*384 net14
*385 net15
*386 net16
*387 net17
*388 net18
*389 net19
*390 net20
*391 net21
*392 net22
*393 net23
*394 net24
*395 net25
*396 net26
*397 net27
*398 net28
*399 net29
*400 net30
*401 net31
*402 net32
*403 net33
*404 net34
*405 net35
*406 req_rdy
*407 resp_msg[0]
*408 resp_msg[10]
*409 resp_msg[11]
*410 resp_msg[12]
*411 resp_msg[13]
*412 resp_msg[14]
*413 resp_msg[15]
*414 resp_msg[1]
*415 resp_msg[2]
*416 resp_msg[3]
*417 resp_msg[4]
*418 resp_msg[5]
*419 resp_msg[6]
*420 resp_msg[7]
*421 resp_msg[8]
*422 resp_msg[9]
*423 resp_val
*424 clknet_0_clk
*425 clknet_2_0__leaf_clk
*426 clknet_2_1__leaf_clk
*427 clknet_2_2__leaf_clk
*428 clknet_2_3__leaf_clk
*429 net133
*430 net55
*431 net56
*432 net57
*433 net58
*434 net59
*435 net60
*436 net61
*437 net62
*438 net63
*439 net64
*440 net65
*441 net66
*442 net67
*443 net68
*444 net69
*445 net70
*446 net71
*447 net72
*448 net73
*449 net74
*450 net75
*451 net76
*452 net77
*453 net78
*454 net79
*455 net80
*456 net81
*457 net82
*458 net83
*459 net84
*460 net85
*461 net86
*462 net87
*463 net88
*464 net90
*465 net91
*466 net92
*467 net93
*468 net94
*469 net95
*470 net96
*471 net97
*472 net98
*473 net99
*474 net100
*475 net101
*476 net102
*477 net103
*478 net104
*479 net105
*480 net106
*481 net89
*482 net107
*483 net115
*484 net116
*485 net117
*486 net118
*487 net119
*488 net120
*489 net121
*490 net122
*491 net127
*492 net128
*493 net129
*494 net130
*495 net131
*496 net132
*497 _297_
*498 _298_
*499 _299_
*500 _300_
*501 _301_
*502 _302_
*503 _303_
*504 _304_
*505 _305_
*506 _306_
*507 _307_
*508 _308_
*509 _309_
*510 _310_
*511 _311_
*512 _312_
*513 _313_
*514 _314_
*515 _315_
*516 _316_
*517 _317_
*518 _318_
*519 _319_
*520 _320_
*521 _321_
*522 _322_
*523 _323_
*524 _324_
*525 _325_
*526 _326_
*527 _327_
*528 _328_
*529 _329_
*530 _330_
*531 _331_
*532 _332_
*533 _333_
*534 _334_
*535 _335_
*536 _336_
*537 _337_
*538 _338_
*539 _339_
*540 _340_
*541 _341_
*542 _342_
*543 _343_
*544 _344_
*545 _345_
*546 _346_
*547 _347_
*548 _348_
*549 _349_
*550 _350_
*551 _351_
*552 _352_
*553 _353_
*554 _354_
*555 _355_
*556 _356_
*557 _357_
*558 _358_
*559 _359_
*560 _360_
*561 _361_
*562 _362_
*563 _363_
*564 _364_
*565 _365_
*566 _366_
*567 _367_
*568 _368_
*569 _369_
*570 _370_
*571 _371_
*572 _372_
*573 _373_
*574 _374_
*575 _375_
*576 _376_
*577 _377_
*578 _378_
*579 _379_
*580 _380_
*581 _381_
*582 _382_
*583 _383_
*584 _384_
*585 _385_
*586 _386_
*587 _387_
*588 _388_
*589 _389_
*590 _390_
*591 _391_
*592 _392_
*593 _393_
*594 _394_
*595 _395_
*596 _396_
*597 _397_
*598 _398_
*599 _399_
*600 _400_
*601 _401_
*602 _402_
*603 _403_
*604 _404_
*605 _405_
*606 _406_
*607 _407_
*608 _408_
*609 _409_
*610 _410_
*611 _411_
*612 _412_
*613 _413_
*614 _414_
*615 _415_
*616 _416_
*617 _417_
*618 _418_
*619 _419_
*620 _420_
*621 _421_
*622 _422_
*623 _423_
*624 _424_
*625 _425_
*626 _426_
*627 _427_
*628 _428_
*629 _429_
*630 _430_
*631 _431_
*632 _432_
*633 _433_
*634 _434_
*635 _435_
*636 _436_
*637 _437_
*638 _438_
*639 _439_
*640 _440_
*641 _441_
*642 _442_
*643 _443_
*644 _444_
*645 _445_
*646 _446_
*647 _447_
*648 _448_
*649 _449_
*650 _450_
*651 _451_
*652 _452_
*653 _453_
*654 _454_
*655 _455_
*656 _456_
*657 _457_
*658 _458_
*659 _459_
*660 _460_
*661 _461_
*662 _462_
*663 _463_
*664 _464_
*665 _465_
*666 _466_
*667 _467_
*668 _468_
*669 _469_
*670 _470_
*671 _471_
*672 _472_
*673 _473_
*674 _474_
*675 _475_
*676 _476_
*677 _477_
*678 _478_
*679 _479_
*680 _480_
*681 _481_
*682 _482_
*683 _483_
*684 _484_
*685 _485_
*686 _486_
*687 _487_
*688 _488_
*689 _489_
*690 _490_
*691 _491_
*692 _492_
*693 _493_
*694 _494_
*695 _495_
*696 _496_
*697 _497_
*698 _498_
*699 _499_
*700 _500_
*701 _501_
*702 _502_
*703 _503_
*704 _504_
*705 _505_
*706 _506_
*707 _507_
*708 _508_
*709 _509_
*710 _510_
*711 _511_
*712 _512_
*713 _513_
*714 _514_
*715 _515_
*716 _516_
*717 _517_
*718 _518_
*719 _519_
*720 _520_
*721 _521_
*722 _522_
*723 _523_
*724 _524_
*725 _525_
*726 _526_
*727 _527_
*728 _528_
*729 _529_
*730 _530_
*731 _531_
*732 _532_
*733 _533_
*734 _534_
*735 _535_
*736 _536_
*737 _537_
*738 _538_
*739 _539_
*740 _540_
*741 _541_
*742 _542_
*743 _543_
*744 _544_
*745 _545_
*746 _546_
*747 _547_
*748 _548_
*749 _549_
*750 _550_
*751 _551_
*752 _552_
*753 _553_
*754 _554_
*755 _555_
*756 _556_
*757 _557_
*758 _558_
*759 _559_
*760 _560_
*761 _561_
*762 _562_
*763 _563_
*764 _564_
*765 _565_
*766 _566_
*767 _567_
*768 _568_
*769 _569_
*770 _570_
*771 _571_
*772 _572_
*773 _573_
*774 _574_
*775 _575_
*776 _576_
*777 ctrl\.state\.out\[0\]\$_DFF_P_
*778 ctrl\.state\.out\[1\]\$_DFF_P_
*779 ctrl\.state\.out\[2\]\$_DFF_P_
*780 dpath\.a_reg\.out\[0\]\$_DFFE_PP_
*781 dpath\.a_reg\.out\[10\]\$_DFFE_PP_
*782 dpath\.a_reg\.out\[11\]\$_DFFE_PP_
*783 dpath\.a_reg\.out\[12\]\$_DFFE_PP_
*784 dpath\.a_reg\.out\[13\]\$_DFFE_PP_
*785 dpath\.a_reg\.out\[14\]\$_DFFE_PP_
*786 dpath\.a_reg\.out\[15\]\$_DFFE_PP_
*787 dpath\.a_reg\.out\[1\]\$_DFFE_PP_
*788 dpath\.a_reg\.out\[2\]\$_DFFE_PP_
*789 dpath\.a_reg\.out\[3\]\$_DFFE_PP_
*790 dpath\.a_reg\.out\[4\]\$_DFFE_PP_
*791 dpath\.a_reg\.out\[5\]\$_DFFE_PP_
*792 dpath\.a_reg\.out\[6\]\$_DFFE_PP_
*793 dpath\.a_reg\.out\[7\]\$_DFFE_PP_
*794 dpath\.a_reg\.out\[8\]\$_DFFE_PP_
*795 dpath\.a_reg\.out\[9\]\$_DFFE_PP_
*796 dpath\.b_reg\.out\[0\]\$_DFFE_PP_
*797 dpath\.b_reg\.out\[10\]\$_DFFE_PP_
*798 dpath\.b_reg\.out\[11\]\$_DFFE_PP_
*799 dpath\.b_reg\.out\[12\]\$_DFFE_PP_
*800 dpath\.b_reg\.out\[13\]\$_DFFE_PP_
*801 dpath\.b_reg\.out\[14\]\$_DFFE_PP_
*802 dpath\.b_reg\.out\[15\]\$_DFFE_PP_
*803 dpath\.b_reg\.out\[1\]\$_DFFE_PP_
*804 dpath\.b_reg\.out\[2\]\$_DFFE_PP_
*805 dpath\.b_reg\.out\[3\]\$_DFFE_PP_
*806 dpath\.b_reg\.out\[4\]\$_DFFE_PP_
*807 dpath\.b_reg\.out\[5\]\$_DFFE_PP_
*808 dpath\.b_reg\.out\[6\]\$_DFFE_PP_
*809 dpath\.b_reg\.out\[7\]\$_DFFE_PP_
*810 dpath\.b_reg\.out\[8\]\$_DFFE_PP_
*811 dpath\.b_reg\.out\[9\]\$_DFFE_PP_
*812 PHY_EDGE_ROW_0_Right_0
*813 PHY_EDGE_ROW_1_Right_1
*814 PHY_EDGE_ROW_2_Right_2
*815 PHY_EDGE_ROW_3_Right_3
*816 PHY_EDGE_ROW_4_Right_4
*817 PHY_EDGE_ROW_5_Right_5
*818 PHY_EDGE_ROW_6_Right_6
*819 PHY_EDGE_ROW_7_Right_7
*820 PHY_EDGE_ROW_8_Right_8
*821 PHY_EDGE_ROW_9_Right_9
*822 PHY_EDGE_ROW_10_Right_10
*823 PHY_EDGE_ROW_11_Right_11
*824 PHY_EDGE_ROW_12_Right_12
*825 PHY_EDGE_ROW_13_Right_13
*826 PHY_EDGE_ROW_14_Right_14
*827 PHY_EDGE_ROW_15_Right_15
*828 PHY_EDGE_ROW_16_Right_16
*829 PHY_EDGE_ROW_17_Right_17
*830 PHY_EDGE_ROW_18_Right_18
*831 PHY_EDGE_ROW_19_Right_19
*832 PHY_EDGE_ROW_20_Right_20
*833 PHY_EDGE_ROW_21_Right_21
*834 PHY_EDGE_ROW_22_Right_22
*835 PHY_EDGE_ROW_23_Right_23
*836 PHY_EDGE_ROW_24_Right_24
*837 PHY_EDGE_ROW_25_Right_25
*838 PHY_EDGE_ROW_26_Right_26
*839 PHY_EDGE_ROW_27_Right_27
*840 PHY_EDGE_ROW_28_Right_28
*841 PHY_EDGE_ROW_29_Right_29
*842 PHY_EDGE_ROW_30_Right_30
*843 PHY_EDGE_ROW_31_Right_31
*844 PHY_EDGE_ROW_32_Right_32
*845 PHY_EDGE_ROW_33_Right_33
*846 PHY_EDGE_ROW_34_Right_34
*847 PHY_EDGE_ROW_35_Right_35
*848 PHY_EDGE_ROW_36_Right_36
*849 PHY_EDGE_ROW_37_Right_37
*850 PHY_EDGE_ROW_38_Right_38
*851 PHY_EDGE_ROW_39_Right_39
*852 PHY_EDGE_ROW_40_Right_40
*853 PHY_EDGE_ROW_41_Right_41
*854 PHY_EDGE_ROW_42_Right_42
*855 PHY_EDGE_ROW_43_Right_43
*856 PHY_EDGE_ROW_44_Right_44
*857 PHY_EDGE_ROW_45_Right_45
*858 PHY_EDGE_ROW_46_Right_46
*859 PHY_EDGE_ROW_47_Right_47
*860 PHY_EDGE_ROW_48_Right_48
*861 PHY_EDGE_ROW_49_Right_49
*862 PHY_EDGE_ROW_50_Right_50
*863 PHY_EDGE_ROW_51_Right_51
*864 PHY_EDGE_ROW_0_Left_52
*865 PHY_EDGE_ROW_1_Left_53
*866 PHY_EDGE_ROW_2_Left_54
*867 PHY_EDGE_ROW_3_Left_55
*868 PHY_EDGE_ROW_4_Left_56
*869 PHY_EDGE_ROW_5_Left_57
*870 PHY_EDGE_ROW_6_Left_58
*871 PHY_EDGE_ROW_7_Left_59
*872 PHY_EDGE_ROW_8_Left_60
*873 PHY_EDGE_ROW_9_Left_61
*874 PHY_EDGE_ROW_10_Left_62
*875 PHY_EDGE_ROW_11_Left_63
*876 PHY_EDGE_ROW_12_Left_64
*877 PHY_EDGE_ROW_13_Left_65
*878 PHY_EDGE_ROW_14_Left_66
*879 PHY_EDGE_ROW_15_Left_67
*880 PHY_EDGE_ROW_16_Left_68
*881 PHY_EDGE_ROW_17_Left_69
*882 PHY_EDGE_ROW_18_Left_70
*883 PHY_EDGE_ROW_19_Left_71
*884 PHY_EDGE_ROW_20_Left_72
*885 PHY_EDGE_ROW_21_Left_73
*886 PHY_EDGE_ROW_22_Left_74
*887 PHY_EDGE_ROW_23_Left_75
*888 PHY_EDGE_ROW_24_Left_76
*889 PHY_EDGE_ROW_25_Left_77
*890 PHY_EDGE_ROW_26_Left_78
*891 PHY_EDGE_ROW_27_Left_79
*892 PHY_EDGE_ROW_28_Left_80
*893 PHY_EDGE_ROW_29_Left_81
*894 PHY_EDGE_ROW_30_Left_82
*895 PHY_EDGE_ROW_31_Left_83
*896 PHY_EDGE_ROW_32_Left_84
*897 PHY_EDGE_ROW_33_Left_85
*898 PHY_EDGE_ROW_34_Left_86
*899 PHY_EDGE_ROW_35_Left_87
*900 PHY_EDGE_ROW_36_Left_88
*901 PHY_EDGE_ROW_37_Left_89
*902 PHY_EDGE_ROW_38_Left_90
*903 PHY_EDGE_ROW_39_Left_91
*904 PHY_EDGE_ROW_40_Left_92
*905 PHY_EDGE_ROW_41_Left_93
*906 PHY_EDGE_ROW_42_Left_94
*907 PHY_EDGE_ROW_43_Left_95
*908 PHY_EDGE_ROW_44_Left_96
*909 PHY_EDGE_ROW_45_Left_97
*910 PHY_EDGE_ROW_46_Left_98
*911 PHY_EDGE_ROW_47_Left_99
*912 PHY_EDGE_ROW_48_Left_100
*913 PHY_EDGE_ROW_49_Left_101
*914 PHY_EDGE_ROW_50_Left_102
*915 PHY_EDGE_ROW_51_Left_103
*916 input1
*917 input2
*918 input3
*919 input4
*920 input5
*921 input6
*922 input7
*923 input8
*924 input9
*925 input10
*926 input11
*927 input12
*928 input13
*929 input14
*930 input15
*931 input16
*932 input17
*933 input18
*934 input19
*935 input20
*936 input21
*937 input22
*938 input23
*939 input24
*940 input25
*941 input26
*942 input27
*943 input28
*944 input29
*945 input30
*946 input31
*947 input32
*948 input33
*949 input34
*950 input35
*951 output36
*952 output37
*953 output38
*954 output39
*955 output40
*956 output41
*957 output42
*958 output43
*959 output44
*960 output45
*961 output46
*962 output47
*963 output48
*964 output49
*965 output50
*966 output51
*967 output52
*968 output53
*969 clkbuf_0_clk
*970 clkbuf_2_0__f_clk
*971 clkbuf_2_1__f_clk
*972 clkbuf_2_2__f_clk
*973 clkbuf_2_3__f_clk
*974 clkload0
*975 clkload1
*976 clkload2
*977 clone80
*978 rebuffer2
*979 rebuffer3
*980 rebuffer4
*981 rebuffer5
*982 rebuffer6
*983 rebuffer7
*984 rebuffer8
*985 rebuffer9
*986 rebuffer10
*987 rebuffer11
*988 rebuffer12
*989 rebuffer13
*990 rebuffer14
*991 rebuffer15
*992 rebuffer16
*993 rebuffer17
*994 rebuffer18
*995 rebuffer19
*996 rebuffer20
*997 rebuffer21
*998 rebuffer22
*999 rebuffer23
*1000 rebuffer24
*1001 rebuffer25
*1002 rebuffer26
*1003 rebuffer27
*1004 rebuffer28
*1005 rebuffer29
*1006 rebuffer30
*1007 rebuffer31
*1008 rebuffer32
*1009 rebuffer33
*1010 rebuffer34
*1011 rebuffer35
*1012 rebuffer37
*1013 rebuffer38
*1014 rebuffer39
*1015 rebuffer40
*1016 rebuffer41
*1017 rebuffer42
*1018 rebuffer43
*1019 rebuffer44
*1020 rebuffer45
*1021 rebuffer46
*1022 rebuffer47
*1023 rebuffer48
*1024 rebuffer49
*1025 rebuffer50
*1026 rebuffer51
*1027 rebuffer52
*1028 rebuffer53
*1029 rebuffer36
*1030 rebuffer54
*1031 rebuffer62
*1032 rebuffer63
*1033 rebuffer64
*1034 rebuffer65
*1035 clone66
*1036 clone67
*1037 rebuffer68
*1038 clone69
*1039 clone74
*1040 rebuffer75
*1041 rebuffer76
*1042 rebuffer77
*1043 rebuffer78
*1044 rebuffer79
*1045 FILLER_0_2
*1046 FILLER_0_24
*1047 FILLER_0_46
*1048 FILLER_0_68
*1049 FILLER_0_72
*1050 FILLER_0_88
*1051 FILLER_0_117
*1052 FILLER_0_123
*1053 FILLER_0_144
*1054 FILLER_0_166
*1055 FILLER_0_168
*1056 FILLER_0_174
*1057 FILLER_0_196
*1058 FILLER_0_218
*1059 FILLER_0_240
*1060 FILLER_0_254
*1061 FILLER_1_2
*1062 FILLER_1_24
*1063 FILLER_1_46
*1064 FILLER_1_68
*1065 FILLER_1_90
*1066 FILLER_1_112
*1067 FILLER_1_134
*1068 FILLER_1_156
*1069 FILLER_1_178
*1070 FILLER_1_200
*1071 FILLER_1_222
*1072 FILLER_1_244
*1073 FILLER_2_2
*1074 FILLER_2_24
*1075 FILLER_2_46
*1076 FILLER_2_68
*1077 FILLER_2_90
*1078 FILLER_2_112
*1079 FILLER_2_134
*1080 FILLER_2_156
*1081 FILLER_2_178
*1082 FILLER_2_200
*1083 FILLER_2_222
*1084 FILLER_2_244
*1085 FILLER_3_2
*1086 FILLER_3_24
*1087 FILLER_3_46
*1088 FILLER_3_68
*1089 FILLER_3_90
*1090 FILLER_3_112
*1091 FILLER_3_134
*1092 FILLER_3_156
*1093 FILLER_3_178
*1094 FILLER_3_200
*1095 FILLER_3_222
*1096 FILLER_3_244
*1097 FILLER_4_2
*1098 FILLER_4_24
*1099 FILLER_4_46
*1100 FILLER_4_68
*1101 FILLER_4_90
*1102 FILLER_4_112
*1103 FILLER_4_134
*1104 FILLER_4_156
*1105 FILLER_4_178
*1106 FILLER_4_200
*1107 FILLER_4_222
*1108 FILLER_4_244
*1109 FILLER_5_2
*1110 FILLER_5_24
*1111 FILLER_5_46
*1112 FILLER_5_68
*1113 FILLER_5_90
*1114 FILLER_5_112
*1115 FILLER_5_134
*1116 FILLER_5_156
*1117 FILLER_5_178
*1118 FILLER_5_200
*1119 FILLER_5_222
*1120 FILLER_5_244
*1121 FILLER_6_2
*1122 FILLER_6_24
*1123 FILLER_6_46
*1124 FILLER_6_68
*1125 FILLER_6_90
*1126 FILLER_6_112
*1127 FILLER_6_134
*1128 FILLER_6_156
*1129 FILLER_6_178
*1130 FILLER_6_200
*1131 FILLER_6_222
*1132 FILLER_6_244
*1133 FILLER_7_2
*1134 FILLER_7_24
*1135 FILLER_7_46
*1136 FILLER_7_68
*1137 FILLER_7_90
*1138 FILLER_7_112
*1139 FILLER_7_134
*1140 FILLER_7_156
*1141 FILLER_7_178
*1142 FILLER_7_200
*1143 FILLER_7_222
*1144 FILLER_7_244
*1145 FILLER_8_2
*1146 FILLER_8_24
*1147 FILLER_8_46
*1148 FILLER_8_68
*1149 FILLER_8_90
*1150 FILLER_8_112
*1151 FILLER_8_134
*1152 FILLER_8_156
*1153 FILLER_8_178
*1154 FILLER_8_200
*1155 FILLER_8_222
*1156 FILLER_8_244
*1157 FILLER_9_2
*1158 FILLER_9_24
*1159 FILLER_9_46
*1160 FILLER_9_68
*1161 FILLER_9_90
*1162 FILLER_9_112
*1163 FILLER_9_134
*1164 FILLER_9_156
*1165 FILLER_9_178
*1166 FILLER_9_200
*1167 FILLER_9_222
*1168 FILLER_9_244
*1169 FILLER_10_2
*1170 FILLER_10_24
*1171 FILLER_10_46
*1172 FILLER_10_68
*1173 FILLER_10_90
*1174 FILLER_10_112
*1175 FILLER_10_134
*1176 FILLER_10_156
*1177 FILLER_10_178
*1178 FILLER_10_200
*1179 FILLER_10_222
*1180 FILLER_10_244
*1181 FILLER_11_2
*1182 FILLER_11_21
*1183 FILLER_11_43
*1184 FILLER_11_65
*1185 FILLER_11_75
*1186 FILLER_11_83
*1187 FILLER_11_105
*1188 FILLER_11_127
*1189 FILLER_11_149
*1190 FILLER_11_171
*1191 FILLER_11_193
*1192 FILLER_11_215
*1193 FILLER_11_237
*1194 FILLER_11_251
*1195 FILLER_11_257
*1196 FILLER_12_2
*1197 FILLER_12_24
*1198 FILLER_12_34
*1199 FILLER_12_42
*1200 FILLER_12_64
*1201 FILLER_12_70
*1202 FILLER_12_93
*1203 FILLER_12_101
*1204 FILLER_12_142
*1205 FILLER_12_164
*1206 FILLER_12_186
*1207 FILLER_12_208
*1208 FILLER_12_230
*1209 FILLER_12_252
*1210 FILLER_13_2
*1211 FILLER_13_24
*1212 FILLER_13_75
*1213 FILLER_13_85
*1214 FILLER_13_128
*1215 FILLER_13_163
*1216 FILLER_13_185
*1217 FILLER_13_207
*1218 FILLER_13_229
*1219 FILLER_13_251
*1220 FILLER_13_257
*1221 FILLER_14_2
*1222 FILLER_14_24
*1223 FILLER_14_28
*1224 FILLER_14_37
*1225 FILLER_14_51
*1226 FILLER_14_58
*1227 FILLER_14_72
*1228 FILLER_14_82
*1229 FILLER_14_106
*1230 FILLER_14_120
*1231 FILLER_14_122
*1232 FILLER_14_129
*1233 FILLER_14_143
*1234 FILLER_14_147
*1235 FILLER_14_154
*1236 FILLER_14_176
*1237 FILLER_14_198
*1238 FILLER_14_220
*1239 FILLER_14_242
*1240 FILLER_14_256
*1241 FILLER_15_2
*1242 FILLER_15_24
*1243 FILLER_15_38
*1244 FILLER_15_40
*1245 FILLER_15_69
*1246 FILLER_15_73
*1247 FILLER_15_80
*1248 FILLER_15_94
*1249 FILLER_15_111
*1250 FILLER_15_133
*1251 FILLER_15_139
*1252 FILLER_15_141
*1253 FILLER_15_156
*1254 FILLER_15_162
*1255 FILLER_15_164
*1256 FILLER_15_186
*1257 FILLER_15_208
*1258 FILLER_15_230
*1259 FILLER_15_252
*1260 FILLER_16_2
*1261 FILLER_16_24
*1262 FILLER_16_30
*1263 FILLER_16_32
*1264 FILLER_16_51
*1265 FILLER_16_58
*1266 FILLER_16_72
*1267 FILLER_16_83
*1268 FILLER_16_89
*1269 FILLER_16_112
*1270 FILLER_16_122
*1271 FILLER_16_124
*1272 FILLER_16_131
*1273 FILLER_16_145
*1274 FILLER_16_164
*1275 FILLER_16_186
*1276 FILLER_16_208
*1277 FILLER_16_216
*1278 FILLER_16_238
*1279 FILLER_16_252
*1280 FILLER_17_2
*1281 FILLER_17_16
*1282 FILLER_17_22
*1283 FILLER_17_44
*1284 FILLER_17_66
*1285 FILLER_17_89
*1286 FILLER_17_103
*1287 FILLER_17_117
*1288 FILLER_17_127
*1289 FILLER_17_133
*1290 FILLER_17_155
*1291 FILLER_17_157
*1292 FILLER_17_170
*1293 FILLER_17_224
*1294 FILLER_17_233
*1295 FILLER_17_255
*1296 FILLER_17_257
*1297 FILLER_18_2
*1298 FILLER_18_24
*1299 FILLER_18_64
*1300 FILLER_18_70
*1301 FILLER_18_72
*1302 FILLER_18_79
*1303 FILLER_18_91
*1304 FILLER_18_105
*1305 FILLER_18_113
*1306 FILLER_18_117
*1307 FILLER_18_146
*1308 FILLER_18_152
*1309 FILLER_18_163
*1310 FILLER_18_176
*1311 FILLER_18_190
*1312 FILLER_18_212
*1313 FILLER_18_234
*1314 FILLER_18_256
*1315 FILLER_19_2
*1316 FILLER_19_24
*1317 FILLER_19_46
*1318 FILLER_19_65
*1319 FILLER_19_71
*1320 FILLER_19_89
*1321 FILLER_19_95
*1322 FILLER_19_113
*1323 FILLER_19_143
*1324 FILLER_19_157
*1325 FILLER_19_159
*1326 FILLER_19_168
*1327 FILLER_19_190
*1328 FILLER_19_202
*1329 FILLER_19_224
*1330 FILLER_19_246
*1331 FILLER_19_256
*1332 FILLER_20_2
*1333 FILLER_20_24
*1334 FILLER_20_38
*1335 FILLER_20_74
*1336 FILLER_20_76
*1337 FILLER_20_83
*1338 FILLER_20_105
*1339 FILLER_20_119
*1340 FILLER_20_125
*1341 FILLER_20_132
*1342 FILLER_20_154
*1343 FILLER_20_156
*1344 FILLER_20_165
*1345 FILLER_20_179
*1346 FILLER_20_189
*1347 FILLER_20_195
*1348 FILLER_20_204
*1349 FILLER_20_214
*1350 FILLER_20_236
*1351 FILLER_21_2
*1352 FILLER_21_6
*1353 FILLER_21_12
*1354 FILLER_21_22
*1355 FILLER_21_35
*1356 FILLER_21_57
*1357 FILLER_21_65
*1358 FILLER_21_76
*1359 FILLER_21_82
*1360 FILLER_21_92
*1361 FILLER_21_98
*1362 FILLER_21_105
*1363 FILLER_21_119
*1364 FILLER_21_123
*1365 FILLER_21_133
*1366 FILLER_21_143
*1367 FILLER_21_145
*1368 FILLER_21_153
*1369 FILLER_21_163
*1370 FILLER_21_167
*1371 FILLER_21_174
*1372 FILLER_21_180
*1373 FILLER_21_182
*1374 FILLER_21_195
*1375 FILLER_21_197
*1376 FILLER_21_206
*1377 FILLER_21_228
*1378 FILLER_21_250
*1379 FILLER_21_256
*1380 FILLER_22_2
*1381 FILLER_22_11
*1382 FILLER_22_25
*1383 FILLER_22_29
*1384 FILLER_22_44
*1385 FILLER_22_58
*1386 FILLER_22_64
*1387 FILLER_22_79
*1388 FILLER_22_112
*1389 FILLER_22_116
*1390 FILLER_22_129
*1391 FILLER_22_131
*1392 FILLER_22_138
*1393 FILLER_22_148
*1394 FILLER_22_161
*1395 FILLER_22_171
*1396 FILLER_22_178
*1397 FILLER_22_192
*1398 FILLER_22_194
*1399 FILLER_22_200
*1400 FILLER_22_206
*1401 FILLER_22_222
*1402 FILLER_22_236
*1403 FILLER_22_240
*1404 FILLER_22_246
*1405 FILLER_22_256
*1406 FILLER_23_2
*1407 FILLER_23_33
*1408 FILLER_23_51
*1409 FILLER_23_61
*1410 FILLER_23_63
*1411 FILLER_23_76
*1412 FILLER_23_78
*1413 FILLER_23_91
*1414 FILLER_23_119
*1415 FILLER_23_141
*1416 FILLER_23_147
*1417 FILLER_23_149
*1418 FILLER_23_172
*1419 FILLER_23_178
*1420 FILLER_23_180
*1421 FILLER_23_222
*1422 FILLER_23_236
*1423 FILLER_23_240
*1424 FILLER_23_246
*1425 FILLER_23_248
*1426 FILLER_23_254
*1427 FILLER_24_2
*1428 FILLER_24_16
*1429 FILLER_24_25
*1430 FILLER_24_35
*1431 FILLER_24_53
*1432 FILLER_24_60
*1433 FILLER_24_70
*1434 FILLER_24_72
*1435 FILLER_24_84
*1436 FILLER_24_127
*1437 FILLER_24_149
*1438 FILLER_24_153
*1439 FILLER_24_162
*1440 FILLER_24_166
*1441 FILLER_24_174
*1442 FILLER_24_180
*1443 FILLER_24_182
*1444 FILLER_24_199
*1445 FILLER_24_209
*1446 FILLER_24_217
*1447 FILLER_24_239
*1448 FILLER_24_253
*1449 FILLER_24_257
*1450 FILLER_25_2
*1451 FILLER_25_24
*1452 FILLER_25_54
*1453 FILLER_25_68
*1454 FILLER_25_92
*1455 FILLER_25_127
*1456 FILLER_25_141
*1457 FILLER_25_147
*1458 FILLER_25_163
*1459 FILLER_25_182
*1460 FILLER_25_194
*1461 FILLER_25_212
*1462 FILLER_25_234
*1463 FILLER_25_256
*1464 FILLER_26_2
*1465 FILLER_26_16
*1466 FILLER_26_23
*1467 FILLER_26_37
*1468 FILLER_26_43
*1469 FILLER_26_53
*1470 FILLER_26_75
*1471 FILLER_26_77
*1472 FILLER_26_84
*1473 FILLER_26_101
*1474 FILLER_26_111
*1475 FILLER_26_129
*1476 FILLER_26_151
*1477 FILLER_26_157
*1478 FILLER_26_159
*1479 FILLER_26_166
*1480 FILLER_26_174
*1481 FILLER_26_185
*1482 FILLER_26_198
*1483 FILLER_26_204
*1484 FILLER_26_226
*1485 FILLER_26_248
*1486 FILLER_27_2
*1487 FILLER_27_24
*1488 FILLER_27_34
*1489 FILLER_27_36
*1490 FILLER_27_43
*1491 FILLER_27_47
*1492 FILLER_27_59
*1493 FILLER_27_61
*1494 FILLER_27_68
*1495 FILLER_27_70
*1496 FILLER_27_100
*1497 FILLER_27_114
*1498 FILLER_27_118
*1499 FILLER_27_125
*1500 FILLER_27_138
*1501 FILLER_27_140
*1502 FILLER_27_144
*1503 FILLER_27_153
*1504 FILLER_27_157
*1505 FILLER_27_165
*1506 FILLER_27_169
*1507 FILLER_27_176
*1508 FILLER_27_199
*1509 FILLER_27_214
*1510 FILLER_27_228
*1511 FILLER_27_236
*1512 FILLER_28_2
*1513 FILLER_28_14
*1514 FILLER_28_24
*1515 FILLER_28_53
*1516 FILLER_28_80
*1517 FILLER_28_102
*1518 FILLER_28_116
*1519 FILLER_28_120
*1520 FILLER_28_128
*1521 FILLER_28_162
*1522 FILLER_28_168
*1523 FILLER_28_173
*1524 FILLER_28_189
*1525 FILLER_28_205
*1526 FILLER_28_227
*1527 FILLER_28_236
*1528 FILLER_29_2
*1529 FILLER_29_6
*1530 FILLER_29_28
*1531 FILLER_29_44
*1532 FILLER_29_46
*1533 FILLER_29_53
*1534 FILLER_29_60
*1535 FILLER_29_68
*1536 FILLER_29_90
*1537 FILLER_29_117
*1538 FILLER_29_131
*1539 FILLER_29_146
*1540 FILLER_29_148
*1541 FILLER_29_162
*1542 FILLER_29_180
*1543 FILLER_29_182
*1544 FILLER_29_200
*1545 FILLER_29_222
*1546 FILLER_29_244
*1547 FILLER_30_2
*1548 FILLER_30_38
*1549 FILLER_30_48
*1550 FILLER_30_62
*1551 FILLER_30_75
*1552 FILLER_30_77
*1553 FILLER_30_83
*1554 FILLER_30_105
*1555 FILLER_30_121
*1556 FILLER_30_136
*1557 FILLER_30_155
*1558 FILLER_30_157
*1559 FILLER_30_163
*1560 FILLER_30_176
*1561 FILLER_30_190
*1562 FILLER_30_194
*1563 FILLER_30_207
*1564 FILLER_30_221
*1565 FILLER_30_227
*1566 FILLER_30_233
*1567 FILLER_30_255
*1568 FILLER_30_257
*1569 FILLER_31_2
*1570 FILLER_31_24
*1571 FILLER_31_30
*1572 FILLER_31_39
*1573 FILLER_31_41
*1574 FILLER_31_71
*1575 FILLER_31_85
*1576 FILLER_31_101
*1577 FILLER_31_123
*1578 FILLER_31_145
*1579 FILLER_31_167
*1580 FILLER_31_174
*1581 FILLER_31_196
*1582 FILLER_31_208
*1583 FILLER_31_230
*1584 FILLER_31_252
*1585 FILLER_32_2
*1586 FILLER_32_17
*1587 FILLER_32_31
*1588 FILLER_32_42
*1589 FILLER_32_66
*1590 FILLER_32_76
*1591 FILLER_32_86
*1592 FILLER_32_88
*1593 FILLER_32_102
*1594 FILLER_32_116
*1595 FILLER_32_120
*1596 FILLER_32_131
*1597 FILLER_32_153
*1598 FILLER_32_167
*1599 FILLER_32_183
*1600 FILLER_32_198
*1601 FILLER_32_208
*1602 FILLER_32_210
*1603 FILLER_32_217
*1604 FILLER_32_224
*1605 FILLER_32_230
*1606 FILLER_32_236
*1607 FILLER_33_2
*1608 FILLER_33_9
*1609 FILLER_33_23
*1610 FILLER_33_31
*1611 FILLER_33_41
*1612 FILLER_33_49
*1613 FILLER_33_51
*1614 FILLER_33_62
*1615 FILLER_33_77
*1616 FILLER_33_91
*1617 FILLER_33_95
*1618 FILLER_33_110
*1619 FILLER_33_112
*1620 FILLER_33_123
*1621 FILLER_33_127
*1622 FILLER_33_149
*1623 FILLER_33_159
*1624 FILLER_33_174
*1625 FILLER_33_180
*1626 FILLER_33_188
*1627 FILLER_33_202
*1628 FILLER_33_208
*1629 FILLER_33_238
*1630 FILLER_33_252
*1631 FILLER_34_2
*1632 FILLER_34_6
*1633 FILLER_34_12
*1634 FILLER_34_35
*1635 FILLER_34_41
*1636 FILLER_34_51
*1637 FILLER_34_57
*1638 FILLER_34_70
*1639 FILLER_34_102
*1640 FILLER_34_104
*1641 FILLER_34_133
*1642 FILLER_34_153
*1643 FILLER_34_175
*1644 FILLER_34_205
*1645 FILLER_34_207
*1646 FILLER_34_211
*1647 FILLER_34_221
*1648 FILLER_34_227
*1649 FILLER_34_229
*1650 FILLER_34_235
*1651 FILLER_34_257
*1652 FILLER_35_2
*1653 FILLER_35_24
*1654 FILLER_35_26
*1655 FILLER_35_35
*1656 FILLER_35_37
*1657 FILLER_35_56
*1658 FILLER_35_73
*1659 FILLER_35_83
*1660 FILLER_35_93
*1661 FILLER_35_115
*1662 FILLER_35_119
*1663 FILLER_35_134
*1664 FILLER_35_158
*1665 FILLER_35_180
*1666 FILLER_35_194
*1667 FILLER_35_214
*1668 FILLER_35_216
*1669 FILLER_35_223
*1670 FILLER_35_227
*1671 FILLER_35_233
*1672 FILLER_35_255
*1673 FILLER_35_257
*1674 FILLER_36_2
*1675 FILLER_36_47
*1676 FILLER_36_66
*1677 FILLER_36_88
*1678 FILLER_36_110
*1679 FILLER_36_120
*1680 FILLER_36_122
*1681 FILLER_36_150
*1682 FILLER_36_164
*1683 FILLER_36_178
*1684 FILLER_36_192
*1685 FILLER_36_196
*1686 FILLER_36_218
*1687 FILLER_36_240
*1688 FILLER_36_254
*1689 FILLER_37_2
*1690 FILLER_37_16
*1691 FILLER_37_27
*1692 FILLER_37_39
*1693 FILLER_37_77
*1694 FILLER_37_99
*1695 FILLER_37_120
*1696 FILLER_37_142
*1697 FILLER_37_156
*1698 FILLER_37_170
*1699 FILLER_37_183
*1700 FILLER_37_205
*1701 FILLER_37_227
*1702 FILLER_37_249
*1703 FILLER_37_255
*1704 FILLER_37_257
*1705 FILLER_38_2
*1706 FILLER_38_24
*1707 FILLER_38_46
*1708 FILLER_38_56
*1709 FILLER_38_64
*1710 FILLER_38_78
*1711 FILLER_38_82
*1712 FILLER_38_91
*1713 FILLER_38_113
*1714 FILLER_38_125
*1715 FILLER_38_135
*1716 FILLER_38_145
*1717 FILLER_38_165
*1718 FILLER_38_179
*1719 FILLER_38_200
*1720 FILLER_38_222
*1721 FILLER_38_244
*1722 FILLER_39_2
*1723 FILLER_39_24
*1724 FILLER_39_46
*1725 FILLER_39_50
*1726 FILLER_39_59
*1727 FILLER_39_65
*1728 FILLER_39_72
*1729 FILLER_39_80
*1730 FILLER_39_102
*1731 FILLER_39_124
*1732 FILLER_39_146
*1733 FILLER_39_148
*1734 FILLER_39_155
*1735 FILLER_39_169
*1736 FILLER_39_196
*1737 FILLER_39_218
*1738 FILLER_39_240
*1739 FILLER_39_254
*1740 FILLER_40_2
*1741 FILLER_40_24
*1742 FILLER_40_38
*1743 FILLER_40_48
*1744 FILLER_40_70
*1745 FILLER_40_87
*1746 FILLER_40_109
*1747 FILLER_40_111
*1748 FILLER_40_130
*1749 FILLER_40_144
*1750 FILLER_40_151
*1751 FILLER_40_158
*1752 FILLER_40_180
*1753 FILLER_40_202
*1754 FILLER_40_224
*1755 FILLER_40_246
*1756 FILLER_40_256
*1757 FILLER_41_2
*1758 FILLER_41_24
*1759 FILLER_41_38
*1760 FILLER_41_50
*1761 FILLER_41_60
*1762 FILLER_41_62
*1763 FILLER_41_89
*1764 FILLER_41_97
*1765 FILLER_41_111
*1766 FILLER_41_117
*1767 FILLER_41_134
*1768 FILLER_41_177
*1769 FILLER_41_191
*1770 FILLER_41_197
*1771 FILLER_41_206
*1772 FILLER_41_228
*1773 FILLER_41_250
*1774 FILLER_41_256
*1775 FILLER_42_2
*1776 FILLER_42_16
*1777 FILLER_42_18
*1778 FILLER_42_40